   40
jmolscript: load "" {1 1 1} spacegroup "x,y,z" unitcell [{      8.421642     0.000000     0.000000 }, {      4.210821     7.293356     0.000000 }, {      0.000000     0.000000    24.168322 }]
Pd      0.000000     0.000000     0.000000    47.806348
Pd      2.807211     0.000000     0.000000    47.906259
Pd      5.614431     0.000000     0.000000    47.931604
Pd      1.403606     2.431116     0.000000    47.969936
Pd      4.210817     2.431116     0.000000    47.951989
Pd      7.018036     2.431116     0.000000    47.959465
Pd      2.807215     4.862240     0.000000    47.878985
Pd      5.614427     4.862240     0.000000    47.838095
Pd      8.421646     4.862240     0.000000    47.973210
Pd      1.403606     0.810372     2.292075    47.683999
Pd      4.210817     0.810372     2.292075    47.642832
Pd      7.018036     0.810372     2.292075    47.686557
Pd      2.807211     3.241488     2.292075    47.685343
Pd      5.614422     3.241488     2.292075    47.682332
Pd      8.421642     3.241488     2.292075    47.689499
Pd      4.210821     5.672612     2.292075    47.694994
Pd      7.018032     5.672612     2.292075    47.696532
Pd      9.825252     5.672612     2.292075    47.697853
Pd      8.447812     1.640371     4.563245    47.751195
Pd      2.827533     1.639897     4.569746    47.958219
Pd      5.637809     1.645673     4.565324    47.972107
Pd      9.850449     4.080399     4.569335    47.715018
Pd      4.226868     4.060846     4.628040    47.846936
Pd      7.039983     4.082624     4.564478    47.728254
Pd     11.230525     6.516650     4.635678    47.874062
Pd      5.638576     6.509320     4.587558    47.794951
Pd      8.441248     6.512121     4.575958    47.961388
Pd      0.079378     0.060732     6.900612    47.703807
Pd      2.835521     0.046845     6.914944    46.461647
Pd      5.728641     0.048960     6.932393    46.470189
Pd      1.450064     2.501796     6.861604    47.412754
Pd      4.269794     2.552551     6.896769    46.583828
Pd      7.103933     2.509469     6.845629    47.150010
Pd      2.868133     4.927406     6.909868    48.083815
Pd      5.683181     4.939155     6.898364    48.063059
Pd      8.484215     4.915839     6.865495    47.597993
N       5.125580     1.598426     9.858210     9.838338
O       4.248390     1.849901    10.649457    11.756129
O       6.334805     1.648452     9.908819    11.953725
O       4.478490     1.000699     8.308030    13.400698
  
Same information as above printed with atom number.
   1 Pd     0.000000     0.000000     0.000000    47.806348
   2 Pd     2.807211     0.000000     0.000000    47.906259
   3 Pd     5.614431     0.000000     0.000000    47.931604
   4 Pd     1.403606     2.431116     0.000000    47.969936
   5 Pd     4.210817     2.431116     0.000000    47.951989
   6 Pd     7.018036     2.431116     0.000000    47.959465
   7 Pd     2.807215     4.862240     0.000000    47.878985
   8 Pd     5.614427     4.862240     0.000000    47.838095
   9 Pd     8.421646     4.862240     0.000000    47.973210
  10 Pd     1.403606     0.810372     2.292075    47.683999
  11 Pd     4.210817     0.810372     2.292075    47.642832
  12 Pd     7.018036     0.810372     2.292075    47.686557
  13 Pd     2.807211     3.241488     2.292075    47.685343
  14 Pd     5.614422     3.241488     2.292075    47.682332
  15 Pd     8.421642     3.241488     2.292075    47.689499
  16 Pd     4.210821     5.672612     2.292075    47.694994
  17 Pd     7.018032     5.672612     2.292075    47.696532
  18 Pd     9.825252     5.672612     2.292075    47.697853
  19 Pd     8.447812     1.640371     4.563245    47.751195
  20 Pd     2.827533     1.639897     4.569746    47.958219
  21 Pd     5.637809     1.645673     4.565324    47.972107
  22 Pd     9.850449     4.080399     4.569335    47.715018
  23 Pd     4.226868     4.060846     4.628040    47.846936
  24 Pd     7.039983     4.082624     4.564478    47.728254
  25 Pd    11.230525     6.516650     4.635678    47.874062
  26 Pd     5.638576     6.509320     4.587558    47.794951
  27 Pd     8.441248     6.512121     4.575958    47.961388
  28 Pd     0.079378     0.060732     6.900612    47.703807
  29 Pd     2.835521     0.046845     6.914944    46.461647
  30 Pd     5.728641     0.048960     6.932393    46.470189
  31 Pd     1.450064     2.501796     6.861604    47.412754
  32 Pd     4.269794     2.552551     6.896769    46.583828
  33 Pd     7.103933     2.509469     6.845629    47.150010
  34 Pd     2.868133     4.927406     6.909868    48.083815
  35 Pd     5.683181     4.939155     6.898364    48.063059
  36 Pd     8.484215     4.915839     6.865495    47.597993
  37 N      5.125580     1.598426     9.858210     9.838338
  38 O      4.248390     1.849901    10.649457    11.756129
  39 O      6.334805     1.648452     9.908819    11.953725
  40 O      4.478490     1.000699     8.308030    13.400698
