    3
jmolscript: load "" {1 1 1} spacegroup "x,y,z" unitcell [{     18.209510     0.000000     0.000000 }, {      0.000000    18.209510     0.000000 }, {      0.000000     0.000000    22.740000 }]
N       4.328765     2.737290     8.645293    10.807832
O       4.252977     2.737071     9.849876    11.587201
O       5.414015     2.734686     7.982809    11.990937
  
Same information as above printed with atom number.
   1 N      4.328765     2.737290     8.645293    10.807832
   2 O      4.252977     2.737071     9.849876    11.587201
   3 O      5.414015     2.734686     7.982809    11.990937
