   40
jmolscript: load "" {1 1 1} spacegroup "x,y,z" unitcell [{      7.848885     0.000000     0.000000 }, {      0.000000     7.848885     0.000000 }, {      0.000000     0.000000    22.400000 }]
Cu      1.308150     1.308150     0.000000   239.033774
Cu      3.924443     1.308150     0.000000   240.729610
Cu      6.540735     1.308150     0.000000   242.910255
Cu      1.308150     3.924443     0.000000   241.292350
Cu      3.924443     3.924443     0.000000   241.862702
Cu      6.540735     3.924443     0.000000   240.745273
Cu      1.308150     6.540735     0.000000   240.877252
Cu      3.924443     6.540735     0.000000   240.829731
Cu      6.540735     6.540735     0.000000   238.060608
Cu      0.000000     0.000000     1.849994   237.276876
Cu      2.616292     0.000000     1.849994   236.474067
Cu      5.232593     0.000000     1.849994   236.600043
Cu      0.000000     2.616292     1.849994   236.751245
Cu      2.616292     2.616292     1.849994   237.262486
Cu      5.232593     2.616292     1.849994   236.923307
Cu      0.000000     5.232593     1.849994   236.977437
Cu      2.616292     5.232593     1.849994   237.207015
Cu      5.232593     5.232593     1.849994   236.996558
Cu      1.308433     1.299736     3.664618   235.615931
Cu      3.924607     1.325598     3.682874   238.003761
Cu      6.518970     1.317592     3.686637   241.946419
Cu      1.325496     3.930156     3.675235   236.667045
Cu      3.923257     3.922182     3.699226   237.789064
Cu      6.535288     3.912575     3.683210   242.545604
Cu      1.339907     6.522730     3.709709   242.733304
Cu      3.902214     6.542422     3.695395   242.249010
Cu      6.559706     6.562311     3.652029   238.518190
Cu     -0.006373    -0.005078     5.442080   230.287072
Cu      2.609393     0.029033     5.463091   231.055041
Cu      5.225513    -0.000071     5.441610   229.553118
Cu     -0.016263     2.607643     5.421942   216.038621
Rh      2.597416     2.636841     5.561069   378.324666
Cu      5.273556     2.618828     5.539968   207.067509
Cu     -0.003391     5.239994     5.423421   223.471211
Cu      2.654046     5.318656     5.618906   204.510733
Cu      5.292676     5.298547     5.387312   225.300024
N       4.210252     3.728550     8.205546    51.943723
O       4.084018     4.257761     9.285875    56.907699
O       5.154002     3.033547     7.791504    61.733678
O       2.733594     3.868213     7.030464    74.291714
  
Same information as above printed with atom number.
   1 Cu     1.308150     1.308150     0.000000   239.033774
   2 Cu     3.924443     1.308150     0.000000   240.729610
   3 Cu     6.540735     1.308150     0.000000   242.910255
   4 Cu     1.308150     3.924443     0.000000   241.292350
   5 Cu     3.924443     3.924443     0.000000   241.862702
   6 Cu     6.540735     3.924443     0.000000   240.745273
   7 Cu     1.308150     6.540735     0.000000   240.877252
   8 Cu     3.924443     6.540735     0.000000   240.829731
   9 Cu     6.540735     6.540735     0.000000   238.060608
  10 Cu     0.000000     0.000000     1.849994   237.276876
  11 Cu     2.616292     0.000000     1.849994   236.474067
  12 Cu     5.232593     0.000000     1.849994   236.600043
  13 Cu     0.000000     2.616292     1.849994   236.751245
  14 Cu     2.616292     2.616292     1.849994   237.262486
  15 Cu     5.232593     2.616292     1.849994   236.923307
  16 Cu     0.000000     5.232593     1.849994   236.977437
  17 Cu     2.616292     5.232593     1.849994   237.207015
  18 Cu     5.232593     5.232593     1.849994   236.996558
  19 Cu     1.308433     1.299736     3.664618   235.615931
  20 Cu     3.924607     1.325598     3.682874   238.003761
  21 Cu     6.518970     1.317592     3.686637   241.946419
  22 Cu     1.325496     3.930156     3.675235   236.667045
  23 Cu     3.923257     3.922182     3.699226   237.789064
  24 Cu     6.535288     3.912575     3.683210   242.545604
  25 Cu     1.339907     6.522730     3.709709   242.733304
  26 Cu     3.902214     6.542422     3.695395   242.249010
  27 Cu     6.559706     6.562311     3.652029   238.518190
  28 Cu    -0.006373    -0.005078     5.442080   230.287072
  29 Cu     2.609393     0.029033     5.463091   231.055041
  30 Cu     5.225513    -0.000071     5.441610   229.553118
  31 Cu    -0.016263     2.607643     5.421942   216.038621
  32 Rh     2.597416     2.636841     5.561069   378.324666
  33 Cu     5.273556     2.618828     5.539968   207.067509
  34 Cu    -0.003391     5.239994     5.423421   223.471211
  35 Cu     2.654046     5.318656     5.618906   204.510733
  36 Cu     5.292676     5.298547     5.387312   225.300024
  37 N      4.210252     3.728550     8.205546    51.943723
  38 O      4.084018     4.257761     9.285875    56.907699
  39 O      5.154002     3.033547     7.791504    61.733678
  40 O      2.733594     3.868213     7.030464    74.291714
