   40
jmolscript: load "" {1 1 1} spacegroup "x,y,z" unitcell [{      8.209510     0.000000     0.000000 }, {      0.000000     8.209510     0.000000 }, {      0.000000     0.000000    22.740000 }]
Rh      1.368254     1.368254     0.000000   121.346848
Rh      4.104755     1.368254     0.000000   121.349386
Rh      6.841256     1.368254     0.000000   121.243245
Rh      1.368254     4.104755     0.000000   121.366972
Rh      4.104755     4.104755     0.000000   121.197411
Rh      6.841256     4.104755     0.000000   121.255501
Rh      1.368254     6.841256     0.000000   121.046770
Rh      4.104755     6.841256     0.000000   121.432209
Rh      6.841256     6.841256     0.000000   121.406653
Rh      0.000000     0.000000     1.934992   122.017943
Rh      2.736501     0.000000     1.934992   122.108043
Rh      5.473009     0.000000     1.934992   122.158488
Rh      0.000000     2.736501     1.934992   122.000884
Rh      2.736501     2.736501     1.934992   122.175924
Rh      5.473009     2.736501     1.934992   122.124419
Rh      0.000000     5.473009     1.934992   122.223832
Rh      2.736501     5.473009     1.934992   122.048993
Rh      5.473009     5.473009     1.934992   122.117004
Rh      1.375356     1.388910     3.868597   123.752116
Rh      4.100412     1.386488     3.873054   124.520149
Rh      6.822062     1.375282     3.856863   122.793351
Rh      1.375339     4.084083     3.868597   123.760382
Rh      4.100404     4.086513     3.873031   124.510660
Rh      6.822013     4.097646     3.856909   122.761135
Rh      1.364700     6.841256     3.835488   122.095657
Rh      4.103827     6.841280     3.832418   121.994992
Rh      6.837208     6.841264     3.829666   122.173978
Rh     -0.013234    -0.021033     5.689002   118.955703
Rh      2.725303     8.166394     5.693573   118.307756
Rh      5.476975    -0.028840     5.687911   119.206505
Rh      8.164867     2.736509     5.695551   116.319994
Rh      2.675430     2.736501     5.825943   110.645862
Rh      5.504920     2.736632     5.808728   115.468502
Rh     -0.013250     5.494050     5.688979   118.901412
Rh      2.725303     5.516183     5.693596   118.287794
Rh      5.476991     5.501800     5.687888   119.212662
N       4.328768     2.737289     8.645293    20.916372
O       4.252978     2.737075     9.849876    22.958489
O       5.414008     2.734686     7.982809    23.944373
O       2.676251     2.737921     7.625677    26.773488
  
Same information as above printed with atom number.
   1 Rh     1.368254     1.368254     0.000000   121.346848
   2 Rh     4.104755     1.368254     0.000000   121.349386
   3 Rh     6.841256     1.368254     0.000000   121.243245
   4 Rh     1.368254     4.104755     0.000000   121.366972
   5 Rh     4.104755     4.104755     0.000000   121.197411
   6 Rh     6.841256     4.104755     0.000000   121.255501
   7 Rh     1.368254     6.841256     0.000000   121.046770
   8 Rh     4.104755     6.841256     0.000000   121.432209
   9 Rh     6.841256     6.841256     0.000000   121.406653
  10 Rh     0.000000     0.000000     1.934992   122.017943
  11 Rh     2.736501     0.000000     1.934992   122.108043
  12 Rh     5.473009     0.000000     1.934992   122.158488
  13 Rh     0.000000     2.736501     1.934992   122.000884
  14 Rh     2.736501     2.736501     1.934992   122.175924
  15 Rh     5.473009     2.736501     1.934992   122.124419
  16 Rh     0.000000     5.473009     1.934992   122.223832
  17 Rh     2.736501     5.473009     1.934992   122.048993
  18 Rh     5.473009     5.473009     1.934992   122.117004
  19 Rh     1.375356     1.388910     3.868597   123.752116
  20 Rh     4.100412     1.386488     3.873054   124.520149
  21 Rh     6.822062     1.375282     3.856863   122.793351
  22 Rh     1.375339     4.084083     3.868597   123.760382
  23 Rh     4.100404     4.086513     3.873031   124.510660
  24 Rh     6.822013     4.097646     3.856909   122.761135
  25 Rh     1.364700     6.841256     3.835488   122.095657
  26 Rh     4.103827     6.841280     3.832418   121.994992
  27 Rh     6.837208     6.841264     3.829666   122.173978
  28 Rh    -0.013234    -0.021033     5.689002   118.955703
  29 Rh     2.725303     8.166394     5.693573   118.307756
  30 Rh     5.476975    -0.028840     5.687911   119.206505
  31 Rh     8.164867     2.736509     5.695551   116.319994
  32 Rh     2.675430     2.736501     5.825943   110.645862
  33 Rh     5.504920     2.736632     5.808728   115.468502
  34 Rh    -0.013250     5.494050     5.688979   118.901412
  35 Rh     2.725303     5.516183     5.693596   118.287794
  36 Rh     5.476991     5.501800     5.687888   119.212662
  37 N      4.328768     2.737289     8.645293    20.916372
  38 O      4.252978     2.737075     9.849876    22.958489
  39 O      5.414008     2.734686     7.982809    23.944373
  40 O      2.676251     2.737921     7.625677    26.773488
